/*--------------------------------*- C++ -*----------------------------------*\
| =========                 |                                                 |
| \\      /  F ield         | OpenFOAM: The Open Source CFD Toolbox           |
|  \\    /   O peration     | Version:  v2012                                 |
|   \\  /    A nd           | Website:  www.openfoam.com                      |
|    \\/     M anipulation  |                                                 |
\*---------------------------------------------------------------------------*/
FoamFile
{
    version     2.0;
    format      ascii;
    class       dictionary;
    object      meshDict;
}
// * * * * * * * * * * * * * * * * * * * * * * * * * * * * * * * * * * * * * //

surfaceFile "geometry/pitzDaily.stl";
minCellSize 5e-4;
maxCellSize 5e-4;

boundaryCellSize 5e-4;

renameBoundary
{
    defaultName		frontAndBack;
    defaultType		empty;

    newPatchNames
    {
        "inlet"
        {
            newName  inlet;
            type     patch;
        }
        "outlet"
        {
            newName  outlet;
            type     patch;
        }

        "upperWall"
        {
            newName  upperWall;
            type     wall;
        }

        "wall_.*"
        {
            newName  lowerWall;
            type     wall;
        }
    }
}

// ************************************************************************* //
