/*--------------------------------*- C++ -*----------------------------------*\
| =========                 |                                                 |
| \\      /  F ield         | OpenFOAM: The Open Source CFD Toolbox           |
|  \\    /   O peration     | Version:  v2206                                 |
|   \\  /    A nd           | Website:  www.openfoam.com                      |
|    \\/     M anipulation  |                                                 |
\*---------------------------------------------------------------------------*/
FoamFile
{
    version     2.0;
    format      ascii;
    class       dictionary;
    object      dynamicMeshDict;
}
// * * * * * * * * * * * * * * * * * * * * * * * * * * * * * * * * * * * * * //


dynamicFvMesh dynamicMotionSolverFvMesh;

// SmartSim mesh motion 
motionSolverLibs (smartSimMotionSolvers);
solver  displacementSmartSim;
displacementSmartSimCoeffs
{
    clusterMode off;
}

// OpenFOAM mesh motion 
//motionSolverLibs (fvMotionSolvers);
//motionSolver displacementLaplacian;   
//displacementLaplacianCoeffs
//{
//    diffusivity       inverseDistance (cylinder);
//}

// ************************************************************************* //
